/*--------------------------------*- C++ -*----------------------------------*\
| =========                 |                                                 |
| \\      /  F ield         | OpenFOAM: The Open Source CFD Toolbox           |
|  \\    /   O peration     | Version:  1.5                                   |
|   \\  /    A nd           | Web:      http://www.OpenFOAM.org               |
|    \\/     M anipulation  |                                                 |
\*---------------------------------------------------------------------------*/
FoamFile
{
    version     2.0;
    format      ascii;
    class       dictionary;
    object      controlDict;
}
// * * * * * * * * * * * * * * * * * * * * * * * * * * * * * * * * * * * * * //

application     interFoam;

startFrom       startTime;

startTime       0;

stopAt          endTime;

endTime         0.005;

deltaT          0.001;

writeControl    adjustableRunTime;

writeInterval   0.005;

purgeWrite      0;

writeFormat     binary;

writePrecision  8;

writeCompression off;

timeFormat      general;

timePrecision   6;

runTimeModifiable yes;

adjustTimeStep  yes;

maxCo           0.9;

maxAlphaCo	0.9;

maxDeltaT       0.01;

libs
(
    "libfloatingTurbinesFoam.so"
);

DebugSwitches
{
	actuatorLineElement 0;
}

// ************************************************************************* //
